
**** 01/23/24 12:05:15 ****** PSpice 17.2.0 (March 2016) ****** ID# 0 ********

 ** Profile: "SCHEMATIC1-1"  [ D:\ORCAD\test1\aaaaaa-PSpiceFiles\SCHEMATIC1\1.sim ] 


 ****     CIRCUIT DESCRIPTION


******************************************************************************




** Creating circuit file "1.cir" 
** WARNING: THIS AUTOMATICALLY GENERATED FILE MAY BE OVERWRITTEN BY SUBSEQUENT SIMULATIONS

*Libraries: 
* Profile Libraries :
* Local Libraries :
* From [PSPICE NETLIST] section of C:\Users\user\AppData\Roaming\SPB_Data\cdssetup\OrCAD_PSpice\17.2.0\PSpice.ini file:
.lib "nom.lib" 

*Analysis directives: 
.TRAN  0 1 0 
.OPTIONS ADVCONV
.PROBE64 V(alias(*)) I(alias(*)) W(alias(*)) D(alias(*)) NOISE(alias(*)) 
.INC "..\SCHEMATIC1.net" 



**** INCLUDING SCHEMATIC1.net ****
* source AAAAAA
V_V1         N00140 N00161 2V
R_R1         N00140 N00147  4 TC=0,0 
R_R2         N00161 N00147  3 TC=0,0 
R_R3         N00154 N00147  4 TC=0,0 
V_V2         N00154 N00161 4V
R_R4         N00433 N00497  5 TC=0,0 
R_R5         N00497 N00466  10 TC=0,0 
R_R6         0 N00497  10 TC=0,0 
V_V3         N00433 0 10v
V_V4         N00466 0 10v

**** RESUMING 1.cir ****
.END

ERROR(ORPSIM-15142): Node N00140 is floating

ERROR(ORPSIM-15142): Node N00161 is floating

ERROR(ORPSIM-15142): Node N00147 is floating

ERROR(ORPSIM-15142): Node N00154 is floating
