
**** 07/13/22 09:26:15 ****** PSpice 17.2.0 (March 2016) ****** ID# 0 ********

 ** Profile: "SCHEMATIC1-1"  [ d:\2022 pspice dinon\can-PSpiceFiles\SCHEMATIC1\1.sim ] 


 ****     CIRCUIT DESCRIPTION


******************************************************************************




** Creating circuit file "1.cir" 
** WARNING: THIS AUTOMATICALLY GENERATED FILE MAY BE OVERWRITTEN BY SUBSEQUENT SIMULATIONS

*Libraries: 
* Profile Libraries :
* Local Libraries :
.STMLIB "../../../can-PSpiceFiles/CAN.stl" 
* From [PSPICE NETLIST] section of C:\SPB_Data\cdssetup\OrCAD_PSpice\17.2.0\PSpice.ini file:
.lib "nom.lib" 

*Analysis directives: 
.TRAN  0 16ms 0 
.OPTIONS ADVCONV
.PROBE64 V(alias(*)) I(alias(*)) W(alias(*)) D(alias(*)) NOISE(alias(*)) 
.INC "..\SCHEMATIC1.net" 



**** INCLUDING SCHEMATIC1.net ****
* source CAN
U_DSTM1         STIM(1,0) $G_DPWR $G_DGND A IO_STM STIMULUS=A
U_DSTM2         STIM(1,0) $G_DPWR $G_DGND B IO_STM STIMULUS=B
X_U1A         N00267 A Y $G_DPWR $G_DGND 7432 PARAMS:
+ IO_LEVEL=0 MNTYMXDLY=0
X_U2A         A B N00267 $G_DPWR $G_DGND 7408 PARAMS:
+ IO_LEVEL=0 MNTYMXDLY=0
X_U2B         N00478 A Y2 $G_DPWR $G_DGND 7408 PARAMS:
+ IO_LEVEL=0 MNTYMXDLY=0
X_U3A         A B N00478 $G_DPWR $G_DGND 7432 PARAMS:
+ IO_LEVEL=0 MNTYMXDLY=0

**** RESUMING 1.cir ****
.END

* d:\2022 pspice dinon\can-PSpiceFiles\CAN.stl written on Wed Jul 13 09:25:39 2022
* by Stimulus Editor -- Serial Number: 0 -- Version 17.2.0
;!Stimulus Get
;! A Digital B Digital
;!Ok
;!Plot Axis_Settings
;!Xrange 0s 32ms
;!AutoUniverse
;!XminRes 1ns
;!YminRes 1n
;!Ok
.STIMULUS B STIM (1, 1) ;! CLOCKP 4ms 2ms 0 0
+   +0s 0
+   +2ms 1
+   Repeat Forever
+      +2ms 0
+      +2ms 1
+   EndRepeat
.STIMULUS A STIM (1, 1) ;! CLOCKP 8ms 4ms 0 0
+   +0s 0
+   +4ms 1
+   Repeat Forever
+      +4ms 0
+      +4ms 1
+   EndRepeat

**** 07/13/22 09:26:15 ****** PSpice 17.2.0 (March 2016) ****** ID# 0 ********

 ** Profile: "SCHEMATIC1-1"  [ d:\2022 pspice dinon\can-PSpiceFiles\SCHEMATIC1\1.sim ] 


 ****     Digital Gate MODEL PARAMETERS


******************************************************************************




               D_32            D_08            
      TPLHMN    4.000000E-09    7.000000E-09 
      TPLHTY   10.000000E-09   17.500000E-09 
      TPLHMX   15.000000E-09   27.000000E-09 
      TPHLMN    5.600000E-09    4.800000E-09 
      TPHLTY   14.000000E-09   12.000000E-09 
      TPHLMX   22.000000E-09   19.000000E-09 


**** 07/13/22 09:26:15 ****** PSpice 17.2.0 (March 2016) ****** ID# 0 ********

 ** Profile: "SCHEMATIC1-1"  [ d:\2022 pspice dinon\can-PSpiceFiles\SCHEMATIC1\1.sim ] 


 ****     Digital IO  MODEL PARAMETERS


******************************************************************************




               IO_STM          IO_STD          
        DRVL    0             104            
        DRVH    0              96.4          
       AtoD1                 AtoD_STD        
       AtoD2                 AtoD_STD_NX     
       AtoD3                 AtoD_STD        
       AtoD4                 AtoD_STD_NX     
       DtoA1 DtoA_STM        DtoA_STD        
       DtoA2 DtoA_STM        DtoA_STD        
       DtoA3 DtoA_STM        DtoA_STD        
       DtoA4 DtoA_STM        DtoA_STD        
      TSWHL1                    1.511000E-09 
      TSWHL2                    1.487000E-09 
      TSWHL3                    1.511000E-09 
      TSWHL4                    1.487000E-09 
      TSWLH1                    3.517000E-09 
      TSWLH2                    3.564000E-09 
      TSWLH3                    3.517000E-09 
      TSWLH4                    3.564000E-09 
       TPWRT  100.000000E+03  100.000000E+03 



          JOB CONCLUDED

**** 07/13/22 09:26:15 ****** PSpice 17.2.0 (March 2016) ****** ID# 0 ********

 ** Profile: "SCHEMATIC1-1"  [ d:\2022 pspice dinon\can-PSpiceFiles\SCHEMATIC1\1.sim ] 


 ****     JOB STATISTICS SUMMARY


******************************************************************************



  Total job time                    =         .03
