
**** 09/02/22 11:34:40 ****** PSpice 17.2.0 (March 2016) ****** ID# 0 ********

 ** Profile: "SCHEMATIC1-1"  [ D:\Or CAD\pspice 10609 junja\positive clamper V perse-PSpiceFiles\SCHEMATIC1\1.sim ] 


 ****     CIRCUIT DESCRIPTION


******************************************************************************




** Creating circuit file "1.cir" 
** WARNING: THIS AUTOMATICALLY GENERATED FILE MAY BE OVERWRITTEN BY SUBSEQUENT SIMULATIONS

*Libraries: 
* Profile Libraries :
* Local Libraries :
* From [PSPICE NETLIST] section of C:\SPB_Data\cdssetup\OrCAD_PSpice\17.2.0\PSpice.ini file:
.lib "nom.lib" 

*Analysis directives: 
.TRAN  0 0.5ms 0 
.OPTIONS ADVCONV
.PROBE64 V(alias(*)) I(alias(*)) W(alias(*)) D(alias(*)) NOISE(alias(*)) 
.INC "..\SCHEMATIC1.net" 



**** INCLUDING SCHEMATIC1.net ****
* source POSITIVE CLAMPER V PERSE
D_D1         0 N00398 D1N4001 
R_R1         0 N00398  10k TC=0,0 
C_C1         N00388 N00398  10uF  TC=0,0 
V_V1         N00388 0  
+PULSE -4V +4V 1ps 1ns 1ns 0.05ms 0.1ms

**** RESUMING 1.cir ****
.END

**** 09/02/22 11:34:40 ****** PSpice 17.2.0 (March 2016) ****** ID# 0 ********

 ** Profile: "SCHEMATIC1-1"  [ D:\Or CAD\pspice 10609 junja\positive clamper V perse-PSpiceFiles\SCHEMATIC1\1.sim ] 


 ****     Diode MODEL PARAMETERS


******************************************************************************




               D1N4001         
          IS   14.110000E-09 
           N    1.984        
         IKF   94.81         
          BV   75            
         IBV   10.000000E-06 
          RS     .03389      
          TT    5.700000E-06 
         CJO   25.890000E-12 
          VJ     .3245       
           M     .44         


**** 09/02/22 11:34:40 ****** PSpice 17.2.0 (March 2016) ****** ID# 0 ********

 ** Profile: "SCHEMATIC1-1"  [ D:\Or CAD\pspice 10609 junja\positive clamper V perse-PSpiceFiles\SCHEMATIC1\1.sim ] 


 ****     INITIAL TRANSIENT SOLUTION       TEMPERATURE =   27.000 DEG C


******************************************************************************



 NODE   VOLTAGE     NODE   VOLTAGE     NODE   VOLTAGE     NODE   VOLTAGE


(N00388)   -4.0000 (N00398)-15.52E-21 




    VOLTAGE SOURCE CURRENTS
    NAME         CURRENT

    V_V1         0.000E+00

    TOTAL POWER DISSIPATION   0.00E+00  WATTS



          JOB CONCLUDED

**** 09/02/22 11:34:40 ****** PSpice 17.2.0 (March 2016) ****** ID# 0 ********

 ** Profile: "SCHEMATIC1-1"  [ D:\Or CAD\pspice 10609 junja\positive clamper V perse-PSpiceFiles\SCHEMATIC1\1.sim ] 


 ****     JOB STATISTICS SUMMARY


******************************************************************************



  Total job time (using Solver 1)   =         .03
