
**** 04/14/22 16:41:01 ****** PSpice 17.2.0 (March 2016) ****** ID# 0 ********

 ** Profile: "SCHEMATIC1-2"  [ D:\pspice 10609\vdc d r-PSpiceFiles\SCHEMATIC1\2.sim ] 


 ****     CIRCUIT DESCRIPTION


******************************************************************************




** Creating circuit file "2.cir" 
** WARNING: THIS AUTOMATICALLY GENERATED FILE MAY BE OVERWRITTEN BY SUBSEQUENT SIMULATIONS

*Libraries: 
* Profile Libraries :
* Local Libraries :
* From [PSPICE NETLIST] section of C:\SPB_Data\cdssetup\OrCAD_PSpice\17.2.0\PSpice.ini file:
.lib "nom.lib" 

*Analysis directives: 
.TRAN  0 1s 0 
.OPTIONS ADVCONV
.PROBE64 V(alias(*)) I(alias(*)) W(alias(*)) D(alias(*)) NOISE(alias(*)) 
.INC "..\SCHEMATIC1.net" 



**** INCLUDING SCHEMATIC1.net ****
* source VDC D R
V_V1         N00126 0 5V
R_R1         N00126 0  1k TC=0,0 
D_D1         0 0 D1N4001 

**** RESUMING 2.cir ****
.END

**** 04/14/22 16:41:01 ****** PSpice 17.2.0 (March 2016) ****** ID# 0 ********

 ** Profile: "SCHEMATIC1-2"  [ D:\pspice 10609\vdc d r-PSpiceFiles\SCHEMATIC1\2.sim ] 


 ****     Diode MODEL PARAMETERS


******************************************************************************




               D1N4001         
          IS   14.110000E-09 
           N    1.984        
         IKF   94.81         
          BV   75            
         IBV   10.000000E-06 
          RS     .03389      
          TT    5.700000E-06 
         CJO   25.890000E-12 
          VJ     .3245       
           M     .44         


**** 04/14/22 16:41:01 ****** PSpice 17.2.0 (March 2016) ****** ID# 0 ********

 ** Profile: "SCHEMATIC1-2"  [ D:\pspice 10609\vdc d r-PSpiceFiles\SCHEMATIC1\2.sim ] 


 ****     INITIAL TRANSIENT SOLUTION       TEMPERATURE =   27.000 DEG C


******************************************************************************



 NODE   VOLTAGE     NODE   VOLTAGE     NODE   VOLTAGE     NODE   VOLTAGE


(N00126)    5.0000 




    VOLTAGE SOURCE CURRENTS
    NAME         CURRENT

    V_V1        -5.000E-03

    TOTAL POWER DISSIPATION   2.50E-02  WATTS



          JOB CONCLUDED

**** 04/14/22 16:41:01 ****** PSpice 17.2.0 (March 2016) ****** ID# 0 ********

 ** Profile: "SCHEMATIC1-2"  [ D:\pspice 10609\vdc d r-PSpiceFiles\SCHEMATIC1\2.sim ] 


 ****     JOB STATISTICS SUMMARY


******************************************************************************



  Total job time (using Solver 1)   =         .03
