
**** 08/18/22 17:34:46 ****** PSpice 17.2.0 (March 2016) ****** ID# 0 ********

 ** Profile: "SCHEMATIC1-1"  [ D:\2022 pspice dinon\YES-PSpiceFiles\SCHEMATIC1\1.sim ] 


 ****     CIRCUIT DESCRIPTION


******************************************************************************




** Creating circuit file "1.cir" 
** WARNING: THIS AUTOMATICALLY GENERATED FILE MAY BE OVERWRITTEN BY SUBSEQUENT SIMULATIONS

*Libraries: 
* Profile Libraries :
* Local Libraries :
* From [PSPICE NETLIST] section of C:\SPB_Data\cdssetup\OrCAD_PSpice\17.2.0\PSpice.ini file:
.lib "nom.lib" 

*Analysis directives: 
.TRAN  0 4s 0 
.OPTIONS ADVCONV
.PROBE64 V(alias(*)) I(alias(*)) W(alias(*)) D(alias(*)) NOISE(alias(*)) 
.INC "..\SCHEMATIC1.net" 



**** INCLUDING SCHEMATIC1.net ****
* source YES
.EXTERNAL OUTPUT SSSSSSSSSSSSSSSSSSSS
.EXTERNAL OUTPUT CCCCCCCCCCCCCCCCCCCCCCCCCC
U_DSTM1         STIM(1,1)
+ $G_DPWR $G_DGND
+ N01315 
+ IO_STM
+ IO_LEVEL=0
+  0s 0  
+ 2s 1  
+ 4s 0  
U_DSTM2         STIM(1,1)
+ $G_DPWR $G_DGND
+ N01319 
+ IO_STM
+ IO_LEVEL=0
+  0s 0  
+ 1s 1  
+ 2s 0  
+ 3s 1 
+ 4s 0  
X_U1A         N01315 N01319 SSSSSSSSSSSSSSSSSSSS $G_DPWR $G_DGND 7486 PARAMS:
+ IO_LEVEL=0 MNTYMXDLY=0
X_U2A         N01319 N01349 $G_DPWR $G_DGND 7404 PARAMS:
+ IO_LEVEL=0 MNTYMXDLY=0
X_U3A         SSSSSSSSSSSSSSSSSSSS N01349 CCCCCCCCCCCCCCCCCCCCCCCCCC $G_DPWR
+  $G_DGND 7408 PARAMS:
+ IO_LEVEL=0 MNTYMXDLY=0

**** RESUMING 1.cir ****
.END

**** 08/18/22 17:34:46 ****** PSpice 17.2.0 (March 2016) ****** ID# 0 ********

 ** Profile: "SCHEMATIC1-1"  [ D:\2022 pspice dinon\YES-PSpiceFiles\SCHEMATIC1\1.sim ] 


 ****     Digital Gate MODEL PARAMETERS


******************************************************************************




               D0_GATE         D_86_1          D_86_2          D_86_3          
      TPLHMN    0               3.600000E-09    4.800000E-09    2.400000E-09 
      TPLHTY    0               9.000000E-09   12.000000E-09    6.000000E-09 
      TPLHMX    0              17.000000E-09   24.000000E-09    6.000000E-09 
      TPHLMN    0               2.000000E-09    2.800000E-09    2.400000E-09 
      TPHLTY    0               5.000000E-09    7.000000E-09    6.000000E-09 
      TPHLMX    0              11.000000E-09   16.000000E-09    6.000000E-09 


               D_04            D_08            
      TPLHMN    4.800000E-09    7.000000E-09 
      TPLHTY   12.000000E-09   17.500000E-09 
      TPLHMX   22.000000E-09   27.000000E-09 
      TPHLMN    3.200000E-09    4.800000E-09 
      TPHLTY    8.000000E-09   12.000000E-09 
      TPHLMX   15.000000E-09   19.000000E-09 


**** 08/18/22 17:34:46 ****** PSpice 17.2.0 (March 2016) ****** ID# 0 ********

 ** Profile: "SCHEMATIC1-1"  [ D:\2022 pspice dinon\YES-PSpiceFiles\SCHEMATIC1\1.sim ] 


 ****     Digital IO  MODEL PARAMETERS


******************************************************************************




               IO_STM          IO_STD          
        DRVL    0             104            
        DRVH    0              96.4          
       AtoD1                 AtoD_STD        
       AtoD2                 AtoD_STD_NX     
       AtoD3                 AtoD_STD        
       AtoD4                 AtoD_STD_NX     
       DtoA1 DtoA_STM        DtoA_STD        
       DtoA2 DtoA_STM        DtoA_STD        
       DtoA3 DtoA_STM        DtoA_STD        
       DtoA4 DtoA_STM        DtoA_STD        
      TSWHL1                    1.511000E-09 
      TSWHL2                    1.487000E-09 
      TSWHL3                    1.511000E-09 
      TSWHL4                    1.487000E-09 
      TSWLH1                    3.517000E-09 
      TSWLH2                    3.564000E-09 
      TSWLH3                    3.517000E-09 
      TSWLH4                    3.564000E-09 
       TPWRT  100.000000E+03  100.000000E+03 



          JOB CONCLUDED

**** 08/18/22 17:34:46 ****** PSpice 17.2.0 (March 2016) ****** ID# 0 ********

 ** Profile: "SCHEMATIC1-1"  [ D:\2022 pspice dinon\YES-PSpiceFiles\SCHEMATIC1\1.sim ] 


 ****     JOB STATISTICS SUMMARY


******************************************************************************



  Total job time                    =         .05
