
**** 11/03/22 16:32:18 ****** PSpice 17.2.0 (March 2016) ****** ID# 0 ********

 ** Profile: "SCHEMATIC1-1"  [ D:\Or CAD\pspice 10609 junja\bunjugi 3-PSpiceFiles\SCHEMATIC1\1.sim ] 


 ****     CIRCUIT DESCRIPTION


******************************************************************************




** Creating circuit file "1.cir" 
** WARNING: THIS AUTOMATICALLY GENERATED FILE MAY BE OVERWRITTEN BY SUBSEQUENT SIMULATIONS

*Libraries: 
* Profile Libraries :
* Local Libraries :
* From [PSPICE NETLIST] section of C:\SPB_Data\cdssetup\OrCAD_PSpice\17.2.0\PSpice.ini file:
.lib "nom.lib" 

*Analysis directives: 
.TRAN  0 1.5s 0 
.OPTIONS ADVCONV
.OPTIONS DIGINITSTATE= 0
.PROBE64 V(alias(*)) I(alias(*)) W(alias(*)) D(alias(*)) NOISE(alias(*)) 
.INC "..\SCHEMATIC1.net" 



**** INCLUDING SCHEMATIC1.net ****
* source BUNJUGI 3
D_D2         N03241 0 LT-L29S-TYP 
X_U3A         N03021 N02721 N02721 N02721 N02721 N02985 N03073 N02721 0 74LS76A
+  PARAMS:
+ IO_LEVEL=0 MNTYMXDLY=0
D_D5         N03201 0 LT-L29S-TYP 
R_R1         N02817 N02721  100k TC=0,0 
R_R4         N03241 N02985  150 TC=0,0 
X_U1         0 N03033 N03021 N02721 N03129 N03033 N02817 N02721 555C
D_D3         N03245 0 LT-L29S-TYP 
R_R5         N03245 N03045  150 TC=0,0 
R_R7         N03201 N03021  150 TC=0,0 
R_R2         N03033 N02817  50k TC=0,0 
R_R3         N03237 N03073  150 TC=0,0 
D_D4         N03249 0 LT-L29S-TYP 
D_D1         N03237 0 LT-L29S-TYP 
C_C1         0 N03033  1uF  TC=0,0 
V_V1         N02721 0 5V
X_U2B         N02985 N02721 N02721 N02721 N02721 N02957 N03045 N02721 0 74LS76A
+  PARAMS:
+ IO_LEVEL=0 MNTYMXDLY=0
C_C2         0 N03129  0.01uF  TC=0,0 
R_R6         N03249 N02957  150 TC=0,0 

**** RESUMING 1.cir ****
.END


**** Generated AtoD and DtoA Interfaces ****

*
* Analog/Digital interface for node N02721
*
* Moving X_U2B.U1:K1 from analog node N02721 to new digital node N02721$AtoD
X$N02721_AtoD1
+ N02721
+ N02721$AtoD
+ N02721
+ 0
+ AtoD_LS
+       PARAMS: CAPACITANCE=   0     
* Moving X_U2B.U1:J1 from analog node N02721 to new digital node N02721$AtoD2
X$N02721_AtoD2
+ N02721
+ N02721$AtoD2
+ N02721
+ 0
+ AtoD_LS
+       PARAMS: CAPACITANCE=   0     
* Moving X_U2B.U1:CLRBAR from analog node N02721 to new digital node N02721$AtoD3
X$N02721_AtoD3
+ N02721
+ N02721$AtoD3
+ N02721
+ 0
+ AtoD_LS
+       PARAMS: CAPACITANCE=   0     
* Moving X_U2B.U1:PREBAR from analog node N02721 to new digital node N02721$AtoD4
X$N02721_AtoD4
+ N02721
+ N02721$AtoD4
+ N02721
+ 0
+ AtoD_LS
+       PARAMS: CAPACITANCE=   0     
* Moving X_U3A.U1:K1 from analog node N02721 to new digital node N02721$AtoD5
X$N02721_AtoD5
+ N02721
+ N02721$AtoD5
+ N02721
+ 0
+ AtoD_LS
+       PARAMS: CAPACITANCE=   0     
* Moving X_U3A.U1:J1 from analog node N02721 to new digital node N02721$AtoD6
X$N02721_AtoD6
+ N02721
+ N02721$AtoD6
+ N02721
+ 0
+ AtoD_LS
+       PARAMS: CAPACITANCE=   0     
* Moving X_U3A.U1:CLRBAR from analog node N02721 to new digital node N02721$AtoD7
X$N02721_AtoD7
+ N02721
+ N02721$AtoD7
+ N02721
+ 0
+ AtoD_LS
+       PARAMS: CAPACITANCE=   0     
* Moving X_U3A.U1:PREBAR from analog node N02721 to new digital node N02721$AtoD8
X$N02721_AtoD8
+ N02721
+ N02721$AtoD8
+ N02721
+ 0
+ AtoD_LS
+       PARAMS: CAPACITANCE=   0     
*
* Analog/Digital interface for node N02985
*
* Moving X_U2B.U1:CLKBAR from analog node N02985 to new digital node N02985$AtoD
X$N02985_AtoD1
+ N02985
+ N02985$AtoD
+ N02721
+ 0
+ AtoD_LS
+       PARAMS: CAPACITANCE=   0     
* Moving X_U3A.U1:Q1 from analog node N02985 to new digital node N02985$DtoA
X$N02985_DtoA1
+ N02985$DtoA
+ N02985
+ N02721
+ 0
+ DtoA_LS
+       PARAMS: DRVH= 108    DRVL= 157    CAPACITANCE=   0     
*
* Analog/Digital interface for node N03045
*
* Moving X_U2B.U1:QBAR1 from analog node N03045 to new digital node N03045$DtoA
X$N03045_DtoA1
+ N03045$DtoA
+ N03045
+ N02721
+ 0
+ DtoA_LS
+       PARAMS: DRVH= 108    DRVL= 157    CAPACITANCE=   0     
*
* Analog/Digital interface for node N03021
*
* Moving X_U3A.U1:CLKBAR from analog node N03021 to new digital node N03021$AtoD
X$N03021_AtoD1
+ N03021
+ N03021$AtoD
+ N02721
+ 0
+ AtoD_LS
+       PARAMS: CAPACITANCE=   0     
*
* Analog/Digital interface for node N03073
*
* Moving X_U3A.U1:QBAR1 from analog node N03073 to new digital node N03073$DtoA
X$N03073_DtoA1
+ N03073$DtoA
+ N03073
+ N02721
+ 0
+ DtoA_LS
+       PARAMS: DRVH= 108    DRVL= 157    CAPACITANCE=   0     
*
* Analog/Digital interface for node N02957
*
* Moving X_U2B.U1:Q1 from analog node N02957 to new digital node N02957$DtoA
X$N02957_DtoA1
+ N02957$DtoA
+ N02957
+ N02721
+ 0
+ DtoA_LS
+       PARAMS: DRVH= 108    DRVL= 157    CAPACITANCE=   0     
*
* Analog/Digital interface power supply subcircuits
*
X$DIGIFPWR 0 DIGIFPWR


**** 11/03/22 16:32:18 ****** PSpice 17.2.0 (March 2016) ****** ID# 0 ********

 ** Profile: "SCHEMATIC1-1"  [ D:\Or CAD\pspice 10609 junja\bunjugi 3-PSpiceFiles\SCHEMATIC1\1.sim ] 


 ****     Diode MODEL PARAMETERS


******************************************************************************




               LT-L29S-TYP     X_U1.DIODE      
          IS   10.000000E-21   10.000000E-15 
           N    2.844                        
          RS   24.477            .01         


**** 11/03/22 16:32:18 ****** PSpice 17.2.0 (March 2016) ****** ID# 0 ********

 ** Profile: "SCHEMATIC1-1"  [ D:\Or CAD\pspice 10609 junja\bunjugi 3-PSpiceFiles\SCHEMATIC1\1.sim ] 


 ****     Junction FET MODEL PARAMETERS


******************************************************************************




               X_U1.JNEMOD     
               NJF             
         VTO   -2.5          
        BETA    5.120000E-06 


**** 11/03/22 16:32:18 ****** PSpice 17.2.0 (March 2016) ****** ID# 0 ********

 ** Profile: "SCHEMATIC1-1"  [ D:\Or CAD\pspice 10609 junja\bunjugi 3-PSpiceFiles\SCHEMATIC1\1.sim ] 


 ****     MOSFET MODEL PARAMETERS


******************************************************************************




               X_U1.PCHAN555   X_U1.NCHAN555   
               PMOS            NMOS            
       LEVEL    1               1            
           L  100.000000E-06  100.000000E-06 
           W  100.000000E-06  100.000000E-06 
         VTO    -.2              .2          
          KP   20.000000E-06   20.000000E-06 
       GAMMA    0               0            
         PHI     .6              .6          
      LAMBDA    0               0            
          IS   10.000000E-15   10.000000E-15 
          JS    0               0            
          PB     .8              .8          
        PBSW     .8              .8          
          CJ    0               0            
        CJSW    0               0            
        CGSO    1.000000E-12    1.000000E-12 
        CGDO    1.000000E-12    1.000000E-12 
        CGBO    1.000000E-12    1.000000E-12 
         TOX    0               0            
          XJ    0               0            
       UCRIT   10.000000E+03   10.000000E+03 
      DIOMOD    1               1            
         VFB    0               0            
        LETA    0               0            
        WETA    0               0            
          U0    0               0            
        TEMP    0               0            
         VDD    5               5            
       XPART    0               0            


               X_U1.PCHAN555_OUT 
               PMOS            
       LEVEL    1            
           L  100.000000E-06 
           W  100.000000E-06 
         VTO    -.2          
          KP   20.000000E-06 
       GAMMA    0            
         PHI     .6          
      LAMBDA    0            
          IS   10.000000E-15 
          JS    0            
          PB     .8          
        PBSW     .8          
         CBD  200.000000E-12 
          CJ    0            
        CJSW    0            
        CGSO    1.000000E-12 
        CGDO    1.000000E-12 
        CGBO    1.000000E-12 
         TOX    0            
          XJ    0            
       UCRIT   10.000000E+03 
      DIOMOD    1            
         VFB    0            
        LETA    0            
        WETA    0            
          U0    0            
        TEMP    0            
         VDD    5            
       XPART    0            


**** 11/03/22 16:32:18 ****** PSpice 17.2.0 (March 2016) ****** ID# 0 ********

 ** Profile: "SCHEMATIC1-1"  [ D:\Or CAD\pspice 10609 junja\bunjugi 3-PSpiceFiles\SCHEMATIC1\1.sim ] 


 ****     Digital Input MODEL PARAMETERS


******************************************************************************




               DIN74LS         
      S0NAME 0               
       S0TSW    5.000000E-09 
       S0RLO    1            
       S0RHI  100.000000E+03 
      S1NAME 1               
       S1TSW    4.500000E-09 
       S1RLO  100.000000E+03 
       S1RHI    1            
      S2NAME X               
       S2TSW    4.500000E-09 
       S2RLO   30.9          
       S2RHI  100            
      S3NAME R               
       S3TSW    4.500000E-09 
       S3RLO   30.9          
       S3RHI  100            
      S4NAME F               
       S4TSW    4.500000E-09 
       S4RLO   30.9          
       S4RHI  100            
      S5NAME Z               
       S5TSW    4.500000E-09 
       S5RLO  200.000000E+03 
       S5RHI  200.000000E+03 


**** 11/03/22 16:32:18 ****** PSpice 17.2.0 (March 2016) ****** ID# 0 ********

 ** Profile: "SCHEMATIC1-1"  [ D:\Or CAD\pspice 10609 junja\bunjugi 3-PSpiceFiles\SCHEMATIC1\1.sim ] 


 ****     Digital Output MODEL PARAMETERS


******************************************************************************




               DO74LS          
    TIMESTEP  100.000000E-12 
      S0NAME X               
       S0VHI    2            
       S0VLO     .8          
      S1NAME 0               
       S1VHI     .8          
       S1VLO   -1.5          
      S2NAME R               
       S2VHI    1.2          
       S2VLO     .8          
      S3NAME R               
       S3VHI    2            
       S3VLO    1.1          
      S4NAME X               
       S4VHI    2            
       S4VLO     .8          
      S5NAME 1               
       S5VHI    7            
       S5VLO    2            
      S6NAME F               
       S6VHI    2            
       S6VLO    1.1          
      S7NAME F               
       S7VHI    1.2          
       S7VLO     .8          


**** 11/03/22 16:32:18 ****** PSpice 17.2.0 (March 2016) ****** ID# 0 ********

 ** Profile: "SCHEMATIC1-1"  [ D:\Or CAD\pspice 10609 junja\bunjugi 3-PSpiceFiles\SCHEMATIC1\1.sim ] 


 ****     Digital Edge Triggered FF MODEL PARAMETERS


******************************************************************************




               D_LS76          
  TPCLKQLHMN    6.000000E-09 
  TPCLKQLHTY   15.000000E-09 
  TPCLKQLHMX   20.000000E-09 
  TPCLKQHLMN    6.000000E-09 
  TPCLKQHLTY   15.000000E-09 
  TPCLKQHLMX   20.000000E-09 
   TPPCQLHMN    6.000000E-09 
   TPPCQLHTY   15.000000E-09 
   TPPCQLHMX   20.000000E-09 
   TPPCQHLMN    6.000000E-09 
   TPPCQHLTY   15.000000E-09 
   TPPCQHLMX   20.000000E-09 
    TWCLKLMN    0            
    TWCLKLTY    0            
    TWCLKLMX    0            
    TWCLKHMN   20.000000E-09 
    TWCLKHTY   20.000000E-09 
    TWCLKHMX   20.000000E-09 
     TWPCLMN   20.000000E-09 
     TWPCLTY   20.000000E-09 
     TWPCLMX   20.000000E-09 
   TSUDCLKMN   20.000000E-09 
   TSUDCLKTY   20.000000E-09 
   TSUDCLKMX   20.000000E-09 
 TSUPCCLKHMN    0            
 TSUPCCLKHTY    0            
 TSUPCCLKHMX    0            
    THDCLKMN    0            
    THDCLKTY    0            
    THDCLKMX    0            
  TSUCECLKMN    0            
  TSUCECLKTY    0            
  TSUCECLKMX    0            
   THCECLKMN    0            
   THCECLKTY    0            
   THCECLKMX    0            


**** 11/03/22 16:32:18 ****** PSpice 17.2.0 (March 2016) ****** ID# 0 ********

 ** Profile: "SCHEMATIC1-1"  [ D:\Or CAD\pspice 10609 junja\bunjugi 3-PSpiceFiles\SCHEMATIC1\1.sim ] 


 ****     Digital IO  MODEL PARAMETERS


******************************************************************************




               IO_LS           
        DRVL  157            
        DRVH  108            
       AtoD1 AtoD_LS         
       AtoD2 AtoD_LS_NX      
       AtoD3 AtoD_LS         
       AtoD4 AtoD_LS_NX      
       DtoA1 DtoA_LS         
       DtoA2 DtoA_LS         
       DtoA3 DtoA_LS         
       DtoA4 DtoA_LS         
      TSWHL1    2.724000E-09 
      TSWHL2    2.724000E-09 
      TSWHL3    2.724000E-09 
      TSWHL4    2.724000E-09 
      TSWLH1    2.104000E-09 
      TSWLH2    2.104000E-09 
      TSWLH3    2.104000E-09 
      TSWLH4    2.104000E-09 
       TPWRT  100.000000E+03 


Starting pseudo-transient algorithm.

ERROR(ORPSIM-16550): Floating point computation failed during matrix solution. Possible solutions: 1)Ensure that all device parameters are in valid range. 2)Try using .options LIMIT

INTERNAL ERROR -- Divide by Zero, Divide

ABORTING SIMULATION
**** 11/03/22 16:32:18 ****** PSpice 17.2.0 (March 2016) ****** ID# 0 ********

 ** Profile: "SCHEMATIC1-1"  [ D:\Or CAD\pspice 10609 junja\bunjugi 3-PSpiceFiles\SCHEMATIC1\1.sim ] 


 ****     JOB STATISTICS SUMMARY


******************************************************************************



Node counts:
  Top level (NUNODS)                =          15
  External (NCNODS)                 =          51
  Total (NUMNOD)                    =          60

Total device count (NUMEL)          =         152
  Capacitors (C)                    =          16
  Diodes (D)                        =           9
  VCVS (E)                          =           6
  VCCS (G)                          =          18
  JFETs (J)                         =           1
  MosFETs (M)                       =          33
  Dig. Inputs (N)                   =           4
  Dig. Outputs (O)                  =          10
  Resistors (R)                     =          34
  Dig. Devices (U)                  =          16
  Voltage Sources (V)               =           5

Number of subcircuits (X)           =          28

Matrix statistics:
  Matrix size (NSTOP)               =          71
  Initial no. elements (NTTAR)      =         263
  No. elements w/ fillin (NTTBR)    =         318
  No. fillins (IFILL)               =          55
  No. overflows (NTTOV)             =         805
  No. LU operations (IOPS)          =         298
  Percent sparsity (PERSPA)         =      93.692

Analysis statistics:
  No. total time points (NUMTTP)    =         128
  No. rejected time points (NUMRTP) =          21
  No. iterations (NUMNIT)           =         904
  No. digital nets (DIGNET)         =          14
  No. next time evals (DIGTP)       =           5
  No. events (DIGEVT)               =          41
  No. device evals (DIGEVL)         =          19

Load Threads                        =           8

Runtime statistics:                       Seconds      Iterations   Stopped At
  Matrix load                       =         .06
  Matrix solution                   =        0.00              10
  Digital simulation                =        0.00
  Readin                            =         .06
  General setup                     =         .02
  CMI setup                     =        0.00
  Setup                             =        0.00
  DC sweep                          =        0.00               0
  Bias point                        =        0.00               0
  Default algorithm                 =        -.05           -1156
  GMIN stepping                     =         .03            1156      5.233u
  Supply stepping                   =         .02               0       28.91%
  AC and noise                      =        0.00               0
  Total transient analysis          =        0.00
  Output                            =        0.00
  Overhead                          =         .19
  Total job time (using Solver 1)   =        1.11
