
**** 11/29/22 16:08:24 ****** PSpice 17.2.0 (March 2016) ****** ID# 0 ********

 ** Profile: "SCHEMATIC1-1"  [ C:\10609_LSH\anything-PSpiceFiles\SCHEMATIC1\1.sim ] 


 ****     CIRCUIT DESCRIPTION


******************************************************************************




** Creating circuit file "1.cir" 
** WARNING: THIS AUTOMATICALLY GENERATED FILE MAY BE OVERWRITTEN BY SUBSEQUENT SIMULATIONS

*Libraries: 
* Profile Libraries :
* Local Libraries :
* From [PSPICE NETLIST] section of C:\SPB_Data\cdssetup\OrCAD_PSpice\17.2.0\PSpice.ini file:
.lib "nom.lib" 

*Analysis directives: 
.TRAN  0 2ms 0 
.OPTIONS ADVCONV
.PROBE64 V(alias(*)) I(alias(*)) W(alias(*)) D(alias(*)) NOISE(alias(*)) 
.INC "..\SCHEMATIC1.net" 



**** INCLUDING SCHEMATIC1.net ****
* source ANYTHING
X_U1A         0 N00295 VCC VEE OUT LM324
R_R2         IN N00295  2k TC=0,0 
R_R1         N00295 OUT  2k TC=0,0 
R_R3         OUT 0  1k TC=0,0 
V_V1         IN 0  AC <AC>
-----------------------$
ERROR(ORPSIM-16492): Missing value
+SIN 0 5V 1Khz 0 0 0
V_V2         VCC 0 15V
V_V3         VEE 0 -15V

**** RESUMING 1.cir ****
.END
