
**** 06/29/22 09:32:57 ****** PSpice 17.2.0 (March 2016) ****** ID# 0 ********

 ** Profile: "SCHEMATIC1-1"  [ D:\2022 pspice dinon\test-PSpiceFiles\SCHEMATIC1\1.sim ] 


 ****     CIRCUIT DESCRIPTION


******************************************************************************




** Creating circuit file "1.cir" 
** WARNING: THIS AUTOMATICALLY GENERATED FILE MAY BE OVERWRITTEN BY SUBSEQUENT SIMULATIONS

*Libraries: 
* Profile Libraries :
* Local Libraries :
.STMLIB "../../../test-PSpiceFiles/TEST.stl" 
* From [PSPICE NETLIST] section of C:\SPB_Data\cdssetup\OrCAD_PSpice\17.2.0\PSpice.ini file:
.lib "nom.lib" 

*Analysis directives: 
.TRAN  0 8ms 0 
.OPTIONS ADVCONV
.PROBE64 V(alias(*)) I(alias(*)) W(alias(*)) D(alias(*)) NOISE(alias(*)) 
.INC "..\SCHEMATIC1.net" 



**** INCLUDING SCHEMATIC1.net ****
* source TEST
X_U1A         A B N00628 $G_DPWR $G_DGND 7408 PARAMS:
+ IO_LEVEL=0 MNTYMXDLY=0
X_U1B         A C N00635 $G_DPWR $G_DGND 7408 PARAMS:
+ IO_LEVEL=0 MNTYMXDLY=0
X_U1C         A D N00644 $G_DPWR $G_DGND 7408 PARAMS:
+ IO_LEVEL=0 MNTYMXDLY=0
X_U2A         B C D N00651 $G_DPWR $G_DGND 7411 PARAMS:
+ IO_LEVEL=0 MNTYMXDLY=0
X_U3A         N00628 N00635 N00669 $G_DPWR $G_DGND 7432 PARAMS:
+ IO_LEVEL=0 MNTYMXDLY=0
X_U3B         N00644 N00651 N00660 $G_DPWR $G_DGND 7432 PARAMS:
+ IO_LEVEL=0 MNTYMXDLY=0
X_U3C         N00669 N00660 Y $G_DPWR $G_DGND 7432 PARAMS:
+ IO_LEVEL=0 MNTYMXDLY=0
U_DSTM1         STIM(1,0) $G_DPWR $G_DGND A IO_STM STIMULUS=A2
U_DSTM2         STIM(1,0) $G_DPWR $G_DGND B IO_STM STIMULUS=B2
U_DSTM3         STIM(1,0) $G_DPWR $G_DGND C IO_STM STIMULUS=C2
U_DSTM4         STIM(1,0) $G_DPWR $G_DGND D IO_STM STIMULUS=D2

**** RESUMING 1.cir ****
.END

;!Xrange 0s 70ms
;!AutoUniverse
;!XminRes 1ns
;!YminRes 1n
;!Ok
.STIMULUS D2 STIM (1, 1) ;! CLOCKP 2ms 1ms 0 0
+   +0s 0
+   +1ms 1
+   Repeat Forever
+      +1ms 0
+      +1ms 1
+   EndRepeat
.STIMULUS C2 STIM (1, 1) ;! CLOCKP 4ms 2ms 0 0
+   +0s 0
+   +2ms 1
+   Repeat Forever
+      +2ms 0
+      +2ms 1
+   EndRepeat
.STIMULUS B2 STIM (1, 1) ;! CLOCKP 8ms 4ms 0 0
+   +0s 0
+   +4ms 1
+   Repeat Forever
+      +4ms 0
+      +4ms 1
+   EndRepeat
.STIMULUS A2 STIM (1, 1) ;! CLOCKP 16ms 8ms 0 0
+   +0s 0
+   +8ms 1
+   Repeat Forever
+      +8ms 0
+      +8ms 1
+   EndRepeat
.STIMULUS C1 STIM (1, 1) ;! CLOCKP 4ms 2ms 0 0
+   +0s 0
+   +2ms 1
+   Repeat Forever
+      +2ms 0
+      +2ms 1
+   EndRepeat
.STIMULUS B1 STIM (1, 1) ;! CLOCKP 4ms 2ms 0 0
+   +0s 0
+   +2ms 1
+   Repeat Forever
+      +2ms 0
+      +2ms 1
+   EndRepeat
.STIMULUS A1 STIM (1, 1) ;! CLOCKP 8ms 4ms 0 0
+   +0s 0
+   +4ms 1
+   Repeat Forever
+      +4ms 0
+      +4ms 1
+   EndRepeat
.STIMULUS A STIM (1, 1)
+   +0s 0

**** 06/29/22 09:32:57 ****** PSpice 17.2.0 (March 2016) ****** ID# 0 ********

 ** Profile: "SCHEMATIC1-1"  [ D:\2022 pspice dinon\test-PSpiceFiles\SCHEMATIC1\1.sim ] 


 ****     Digital Gate MODEL PARAMETERS


******************************************************************************




               D_08            D_11            D_32            
      TPLHMN    7.000000E-09    6.750000E-09    4.000000E-09 
      TPLHTY   17.500000E-09   16.875000E-09   10.000000E-09 
      TPLHMX   27.000000E-09   27.000000E-09   15.000000E-09 
      TPHLMN    4.800000E-09    4.750000E-09    5.600000E-09 
      TPHLTY   12.000000E-09   11.875000E-09   14.000000E-09 
      TPHLMX   19.000000E-09   19.000000E-09   22.000000E-09 


**** 06/29/22 09:32:57 ****** PSpice 17.2.0 (March 2016) ****** ID# 0 ********

 ** Profile: "SCHEMATIC1-1"  [ D:\2022 pspice dinon\test-PSpiceFiles\SCHEMATIC1\1.sim ] 


 ****     Digital IO  MODEL PARAMETERS


******************************************************************************




               IO_STM          IO_STD          
        DRVL    0             104            
        DRVH    0              96.4          
       AtoD1                 AtoD_STD        
       AtoD2                 AtoD_STD_NX     
       AtoD3                 AtoD_STD        
       AtoD4                 AtoD_STD_NX     
       DtoA1 DtoA_STM        DtoA_STD        
       DtoA2 DtoA_STM        DtoA_STD        
       DtoA3 DtoA_STM        DtoA_STD        
       DtoA4 DtoA_STM        DtoA_STD        
      TSWHL1                    1.511000E-09 
      TSWHL2                    1.487000E-09 
      TSWHL3                    1.511000E-09 
      TSWHL4                    1.487000E-09 
      TSWLH1                    3.517000E-09 
      TSWLH2                    3.564000E-09 
      TSWLH3                    3.517000E-09 
      TSWLH4                    3.564000E-09 
       TPWRT  100.000000E+03  100.000000E+03 



          JOB CONCLUDED

**** 06/29/22 09:32:57 ****** PSpice 17.2.0 (March 2016) ****** ID# 0 ********

 ** Profile: "SCHEMATIC1-1"  [ D:\2022 pspice dinon\test-PSpiceFiles\SCHEMATIC1\1.sim ] 


 ****     JOB STATISTICS SUMMARY


******************************************************************************



  Total job time                    =         .06
