
**** 08/25/22 17:07:28 ****** PSpice 17.2.0 (March 2016) ****** ID# 0 ********

 ** Profile: "SCHEMATIC1-1"  [ D:\2022 pspice dinon\emcode 8 times 3-PSpiceFiles\SCHEMATIC1\1.sim ] 


 ****     CIRCUIT DESCRIPTION


******************************************************************************




** Creating circuit file "1.cir" 
** WARNING: THIS AUTOMATICALLY GENERATED FILE MAY BE OVERWRITTEN BY SUBSEQUENT SIMULATIONS

*Libraries: 
* Profile Libraries :
* Local Libraries :
* From [PSPICE NETLIST] section of C:\SPB_Data\cdssetup\OrCAD_PSpice\17.2.0\PSpice.ini file:
.lib "nom.lib" 

*Analysis directives: 
.TRAN  0 8ms  0 
.OPTIONS ADVCONV
.PROBE64 V(alias(*)) I(alias(*)) W(alias(*)) D(alias(*)) NOISE(alias(*)) 
.INC "..\SCHEMATIC1.net" 



**** INCLUDING SCHEMATIC1.net ****
* source EMCODE 8 TIMES 3
.EXTERNAL OUTPUT Y0
.EXTERNAL OUTPUT Y1
.EXTERNAL OUTPUT Y2
U_DSTM1         STIM(1,1)
+ $G_DPWR $G_DGND
+ D7 
+ IO_STM
+ IO_LEVEL=0
+  0s 0  
+ 7ms 1  
+ 8ms 0  
U_DSTM2         STIM(1,1)
+ $G_DPWR $G_DGND
+ D6 
+ IO_STM
+ IO_LEVEL=0
+  0s 0  
+ 6ms 1  
+ 7ms 0  
U_DSTM3         STIM(1,1)
+ $G_DPWR $G_DGND
+ D5 
+ IO_STM
+ IO_LEVEL=0
+  0s 0  
+ 5ms 1  
+ 6ms 0  
U_DSTM4         STIM(1,1)
+ $G_DPWR $G_DGND
+ D4 
+ IO_STM
+ IO_LEVEL=0
+  0s 0  
+ 4ms 1  
+ 5ms 0  
U_DSTM5         STIM(1,1)
+ $G_DPWR $G_DGND
+ D3 
+ IO_STM
+ IO_LEVEL=0
+  0s 0  
+ 3ms 1  
+ 4ms 0  
U_DSTM6         STIM(1,1)
+ $G_DPWR $G_DGND
+ D2 
+ IO_STM
+ IO_LEVEL=0
+  0s 0  
+ 2ms 1  
+ 3ms 0  
U_DSTM7         STIM(1,1)
+ $G_DPWR $G_DGND
+ D1 
+ IO_STM
+ IO_LEVEL=0
+  0s 0  
+ 1ms 1  
+ 2ms 0  
X_U1A         D1 D3 N00894 $G_DPWR $G_DGND 7432 PARAMS:
+ IO_LEVEL=0 MNTYMXDLY=0
X_U1B         D5 D7 N00906 $G_DPWR $G_DGND 7432 PARAMS:
+ IO_LEVEL=0 MNTYMXDLY=0
X_U1C         D2 D3 N00918 $G_DPWR $G_DGND 7432 PARAMS:
+ IO_LEVEL=0 MNTYMXDLY=0
X_U1D         D6 D7 N00930 $G_DPWR $G_DGND 7432 PARAMS:
+ IO_LEVEL=0 MNTYMXDLY=0
X_U2A         D4 D5 N00942 $G_DPWR $G_DGND 7432 PARAMS:
+ IO_LEVEL=0 MNTYMXDLY=0
X_U2B         D6 D7 N00954 $G_DPWR $G_DGND 7432 PARAMS:
+ IO_LEVEL=0 MNTYMXDLY=0
X_U2C         N00894 N00906 Y0 $G_DPWR $G_DGND 7432 PARAMS:
+ IO_LEVEL=0 MNTYMXDLY=0
X_U2D         N00918 N00930 Y1 $G_DPWR $G_DGND 7432 PARAMS:
+ IO_LEVEL=0 MNTYMXDLY=0
X_U3A         N00942 N00954 Y2 $G_DPWR $G_DGND 7432 PARAMS:
+ IO_LEVEL=0 MNTYMXDLY=0

**** RESUMING 1.cir ****
.END

**** 08/25/22 17:07:28 ****** PSpice 17.2.0 (March 2016) ****** ID# 0 ********

 ** Profile: "SCHEMATIC1-1"  [ D:\2022 pspice dinon\emcode 8 times 3-PSpiceFiles\SCHEMATIC1\1.sim ] 


 ****     Digital Gate MODEL PARAMETERS


******************************************************************************




               D_32            
      TPLHMN    4.000000E-09 
      TPLHTY   10.000000E-09 
      TPLHMX   15.000000E-09 
      TPHLMN    5.600000E-09 
      TPHLTY   14.000000E-09 
      TPHLMX   22.000000E-09 


**** 08/25/22 17:07:28 ****** PSpice 17.2.0 (March 2016) ****** ID# 0 ********

 ** Profile: "SCHEMATIC1-1"  [ D:\2022 pspice dinon\emcode 8 times 3-PSpiceFiles\SCHEMATIC1\1.sim ] 


 ****     Digital IO  MODEL PARAMETERS


******************************************************************************




               IO_STM          IO_STD          
        DRVL    0             104            
        DRVH    0              96.4          
       AtoD1                 AtoD_STD        
       AtoD2                 AtoD_STD_NX     
       AtoD3                 AtoD_STD        
       AtoD4                 AtoD_STD_NX     
       DtoA1 DtoA_STM        DtoA_STD        
       DtoA2 DtoA_STM        DtoA_STD        
       DtoA3 DtoA_STM        DtoA_STD        
       DtoA4 DtoA_STM        DtoA_STD        
      TSWHL1                    1.511000E-09 
      TSWHL2                    1.487000E-09 
      TSWHL3                    1.511000E-09 
      TSWHL4                    1.487000E-09 
      TSWLH1                    3.517000E-09 
      TSWLH2                    3.564000E-09 
      TSWLH3                    3.517000E-09 
      TSWLH4                    3.564000E-09 
       TPWRT  100.000000E+03  100.000000E+03 



          JOB CONCLUDED

**** 08/25/22 17:07:28 ****** PSpice 17.2.0 (March 2016) ****** ID# 0 ********

 ** Profile: "SCHEMATIC1-1"  [ D:\2022 pspice dinon\emcode 8 times 3-PSpiceFiles\SCHEMATIC1\1.sim ] 


 ****     JOB STATISTICS SUMMARY


******************************************************************************



  Total job time                    =         .05
