
**** 05/18/22 09:47:14 ****** PSpice 17.2.0 (March 2016) ****** ID# 0 ********

 ** Profile: "SCHEMATIC1-1"  [ D:\2022 pspice\nand-PSpiceFiles\SCHEMATIC1\1.sim ] 


 ****     CIRCUIT DESCRIPTION


******************************************************************************




** Creating circuit file "1.cir" 
** WARNING: THIS AUTOMATICALLY GENERATED FILE MAY BE OVERWRITTEN BY SUBSEQUENT SIMULATIONS

*Libraries: 
* Profile Libraries :
.INC "D:\2022 pspice\nand-PSpiceFiles\SCHEMATIC1\1\1_profile.inc" 
* Local Libraries :

**** INCLUDING 1_profile.inc ****
.STMLIB "./1.stl" 

**** RESUMING 1.cir ****
.STMLIB "../../../nand-PSpiceFiles/NAND.stl" 
* From [PSPICE NETLIST] section of C:\SPB_Data\cdssetup\OrCAD_PSpice\17.2.0\PSpice.ini file:
.lib "nom.lib" 

*Analysis directives: 
.TRAN  0 8s 0 
.OPTIONS ADVCONV
.PROBE64 V(alias(*)) I(alias(*)) W(alias(*)) D(alias(*)) NOISE(alias(*)) 
.INC "..\SCHEMATIC1.net" 



**** INCLUDING SCHEMATIC1.net ****
* source NAND
.EXTERNAL OUTPUT Y2
X_U2A         N00264 N00272 Y2 $G_DPWR $G_DGND 7432 PARAMS:
+ IO_LEVEL=0 MNTYMXDLY=0
U_DSTM3         STIM(1,0) $G_DPWR $G_DGND N00264 IO_STM STIMULUS=A2
U_DSTM4         STIM(1,0) $G_DPWR $G_DGND N00272 IO_STM STIMULUS=B2

**** RESUMING 1.cir ****
.END

* D:\2022 pspice\nand-PSpiceFiles\SCHEMATIC1\1\1.stl written on Wed May 18 09:41:56 2022
* by Stimulus Editor -- Serial Number: 4008 -- Version 17.2.0
;!Stimulus Get
;! A2 Digital B2 Digital
;!Ok
;!Plot Axis_Settings
;!Xrange 0s 16s
;!AutoUniverse
;!XminRes 1ns
;!YminRes 1n
;!Ok
.STIMULUS B2 STIM (1, 1) ;! CLOCKP 2 1 0 0
+   +0s 0
+   +1s 1
+   Repeat Forever
+      +1s 0
+      +1s 1
+   EndRepeat
.STIMULUS A2 STIM (1, 1) ;! CLOCKP 4 2 0 0
+   +0s 0
+   +2s 1
+   Repeat Forever
+      +2s 0
+      +2s 1
+   EndRepeat

**** 05/18/22 09:47:14 ****** PSpice 17.2.0 (March 2016) ****** ID# 0 ********

 ** Profile: "SCHEMATIC1-1"  [ D:\2022 pspice\nand-PSpiceFiles\SCHEMATIC1\1.sim ] 


 ****     Digital Gate MODEL PARAMETERS


******************************************************************************




               D_32            
      TPLHMN    4.000000E-09 
      TPLHTY   10.000000E-09 
      TPLHMX   15.000000E-09 
      TPHLMN    5.600000E-09 
      TPHLTY   14.000000E-09 
      TPHLMX   22.000000E-09 


**** 05/18/22 09:47:14 ****** PSpice 17.2.0 (March 2016) ****** ID# 0 ********

 ** Profile: "SCHEMATIC1-1"  [ D:\2022 pspice\nand-PSpiceFiles\SCHEMATIC1\1.sim ] 


 ****     Digital IO  MODEL PARAMETERS


******************************************************************************




               IO_STM          IO_STD          
        DRVL    0             104            
        DRVH    0              96.4          
       AtoD1                 AtoD_STD        
       AtoD2                 AtoD_STD_NX     
       AtoD3                 AtoD_STD        
       AtoD4                 AtoD_STD_NX     
       DtoA1 DtoA_STM        DtoA_STD        
       DtoA2 DtoA_STM        DtoA_STD        
       DtoA3 DtoA_STM        DtoA_STD        
       DtoA4 DtoA_STM        DtoA_STD        
      TSWHL1                    1.511000E-09 
      TSWHL2                    1.487000E-09 
      TSWHL3                    1.511000E-09 
      TSWHL4                    1.487000E-09 
      TSWLH1                    3.517000E-09 
      TSWLH2                    3.564000E-09 
      TSWLH3                    3.517000E-09 
      TSWLH4                    3.564000E-09 
       TPWRT  100.000000E+03  100.000000E+03 



          JOB CONCLUDED

**** 05/18/22 09:47:14 ****** PSpice 17.2.0 (March 2016) ****** ID# 0 ********

 ** Profile: "SCHEMATIC1-1"  [ D:\2022 pspice\nand-PSpiceFiles\SCHEMATIC1\1.sim ] 


 ****     JOB STATISTICS SUMMARY


******************************************************************************



  Total job time                    =         .03
