
**** 05/04/22 11:23:48 ****** PSpice 17.2.0 (March 2016) ****** ID# 0 ********

 ** Profile: "SCHEMATIC1-andgate"  [ D:\2022 pspice\andgate-PSpiceFiles\SCHEMATIC1\andgate.sim ] 


 ****     CIRCUIT DESCRIPTION


******************************************************************************




** Creating circuit file "andgate.cir" 
** WARNING: THIS AUTOMATICALLY GENERATED FILE MAY BE OVERWRITTEN BY SUBSEQUENT SIMULATIONS

*Libraries: 
* Profile Libraries :
* Local Libraries :
.STMLIB "../../../andgate-PSpiceFiles/ANDGATE.stl" 
* From [PSPICE NETLIST] section of C:\SPB_Data\cdssetup\OrCAD_PSpice\17.2.0\PSpice.ini file:
.lib "nom.lib" 

*Analysis directives: 
.TRAN  0 8s 0 
.OPTIONS ADVCONV
.PROBE64 V(alias(*)) I(alias(*)) W(alias(*)) D(alias(*)) NOISE(alias(*)) 
.INC "..\SCHEMATIC1.net" 



**** INCLUDING SCHEMATIC1.net ****
* source ANDGATE
.EXTERNAL OUTPUT Y
X_U1A         N00203 N00211 Y $G_DPWR $G_DGND 7408 PARAMS:
+ IO_LEVEL=0 MNTYMXDLY=0
U_DSTM1         STIM(1,0) $G_DPWR $G_DGND N00203 IO_STM STIMULUS=B
U_DSTM2         STIM(1,0) $G_DPWR $G_DGND N00211 IO_STM STIMULUS=A

**** RESUMING andgate.cir ****
.END

* D:\2022 pspice\andgate-PSpiceFiles\ANDGATE.stl written on Wed May 04 11:19:25 2022
* by Stimulus Editor -- Serial Number: 0 -- Version 17.2.0
;!Stimulus Get
;! B Digital A Digital
;!Ok
;!Plot Axis_Settings
;!Xrange 0s 16s
;!AutoUniverse
;!XminRes 1ns
;!YminRes 1n
;!Ok
.STIMULUS A STIM (1, 1) ;! CLOCKP 4s 2s 0 0
+   +0s 0
+   +2s 1
+   Repeat Forever
+      +2s 0
+      +2s 1
+   EndRepeat
.STIMULUS B STIM (1, 1) ;! CLOCKP 2s 1s 0 0
+   +0s 0
+   +1s 1
+   Repeat Forever
+      +1s 0
+      +1s 1
+   EndRepeat

**** 05/04/22 11:23:48 ****** PSpice 17.2.0 (March 2016) ****** ID# 0 ********

 ** Profile: "SCHEMATIC1-andgate"  [ D:\2022 pspice\andgate-PSpiceFiles\SCHEMATIC1\andgate.sim ] 


 ****     Digital Gate MODEL PARAMETERS


******************************************************************************




               D_08            
      TPLHMN    7.000000E-09 
      TPLHTY   17.500000E-09 
      TPLHMX   27.000000E-09 
      TPHLMN    4.800000E-09 
      TPHLTY   12.000000E-09 
      TPHLMX   19.000000E-09 


**** 05/04/22 11:23:48 ****** PSpice 17.2.0 (March 2016) ****** ID# 0 ********

 ** Profile: "SCHEMATIC1-andgate"  [ D:\2022 pspice\andgate-PSpiceFiles\SCHEMATIC1\andgate.sim ] 


 ****     Digital IO  MODEL PARAMETERS


******************************************************************************




               IO_STM          IO_STD          
        DRVL    0             104            
        DRVH    0              96.4          
       AtoD1                 AtoD_STD        
       AtoD2                 AtoD_STD_NX     
       AtoD3                 AtoD_STD        
       AtoD4                 AtoD_STD_NX     
       DtoA1 DtoA_STM        DtoA_STD        
       DtoA2 DtoA_STM        DtoA_STD        
       DtoA3 DtoA_STM        DtoA_STD        
       DtoA4 DtoA_STM        DtoA_STD        
      TSWHL1                    1.511000E-09 
      TSWHL2                    1.487000E-09 
      TSWHL3                    1.511000E-09 
      TSWHL4                    1.487000E-09 
      TSWLH1                    3.517000E-09 
      TSWLH2                    3.564000E-09 
      TSWLH3                    3.517000E-09 
      TSWLH4                    3.564000E-09 
       TPWRT  100.000000E+03  100.000000E+03 



          JOB CONCLUDED

**** 05/04/22 11:23:48 ****** PSpice 17.2.0 (March 2016) ****** ID# 0 ********

 ** Profile: "SCHEMATIC1-andgate"  [ D:\2022 pspice\andgate-PSpiceFiles\SCHEMATIC1\andgate.sim ] 


 ****     JOB STATISTICS SUMMARY


******************************************************************************



  Total job time                    =         .05
