
**** 10/19/22 10:13:49 ****** PSpice 17.2.0 (March 2016) ****** ID# 0 ********

 ** Profile: "SCHEMATIC1-1"  [ D:\Or CAD\2022 pspice dinon\38Decorder-PSpiceFiles\SCHEMATIC1\1.sim ] 


 ****     CIRCUIT DESCRIPTION


******************************************************************************




** Creating circuit file "1.cir" 
** WARNING: THIS AUTOMATICALLY GENERATED FILE MAY BE OVERWRITTEN BY SUBSEQUENT SIMULATIONS

*Libraries: 
* Profile Libraries :
* Local Libraries :
* From [PSPICE NETLIST] section of C:\SPB_Data\cdssetup\OrCAD_PSpice\17.2.0\PSpice.ini file:
.lib "nom.lib" 

*Analysis directives: 
.TRAN  0 8ms 0 
.OPTIONS ADVCONV
.PROBE64 V(alias(*)) I(alias(*)) W(alias(*)) D(alias(*)) NOISE(alias(*)) 
.INC "..\SCHEMATIC1.net" 



**** INCLUDING SCHEMATIC1.net ****
* source 38DECORDER
.EXTERNAL OUTPUT Y
X_U1A         N00230 N00237 N00241 N00245 Y $G_DPWR $G_DGND 7420 PARAMS:
+ IO_LEVEL=0 MNTYMXDLY=0
X_U3         +5V 0 0 A B C N00230 M_UN0001 N00237 M_UN0002 N00241 M_UN0003
+  M_UN0004 N00245 $G_DPWR $G_DGND 74LS138 PARAMS:
+ IO_LEVEL=0 MNTYMXDLY=0
U_DSTM1         STIM(1,1)
+ $G_DPWR $G_DGND
+ A 
+ IO_STM
+ IO_LEVEL=0
+  0s 0  
+ 1ms 1  
+ 2ms 0  
+ 3ms 1 
+ 4ms 0  
+ 5ms 1  
+ 6ms 0  
+ 7ms 1  
+ 8ms 0  
U_DSTM2         STIM(1,1)
+ $G_DPWR $G_DGND
+ B 
+ IO_STM
+ IO_LEVEL=0
+  0s 0  
+ 2ms 1  
+ 4ms 0  
+ 6ms 1 
+ 8ms 0  
U_DSTM3         STIM(1,1)
+ $G_DPWR $G_DGND
+ C 
+ IO_STM
+ IO_LEVEL=0
+  0s 0  
+ 4ms 1  
+ 8ms 0  

**** RESUMING 1.cir ****
.END


**** Generated AtoD and DtoA Interfaces ****

*
* Analog/Digital interface for node 0
*
* Moving X_U3.ULS138LOG:IN3 from analog node 0 to new digital node 0$AtoD
X$0_AtoD1
+ 0
+ 0$AtoD
+ $G_DPWR
+ $G_DGND
+ AtoD_LS
+       PARAMS: CAPACITANCE=   0     
* Moving X_U3.ULS138LOG:IN2 from analog node 0 to new digital node 0$AtoD2
X$0_AtoD2
+ 0
+ 0$AtoD2
+ $G_DPWR
+ $G_DGND
+ AtoD_LS
+       PARAMS: CAPACITANCE=   0     
*
* Analog/Digital interface power supply subcircuits
*
X$DIGIFPWR 0 DIGIFPWR


**** 10/19/22 10:13:49 ****** PSpice 17.2.0 (March 2016) ****** ID# 0 ********

 ** Profile: "SCHEMATIC1-1"  [ D:\Or CAD\2022 pspice dinon\38Decorder-PSpiceFiles\SCHEMATIC1\1.sim ] 


 ****     Digital Output MODEL PARAMETERS


******************************************************************************




               DO74LS          
    TIMESTEP  100.000000E-12 
      S0NAME X               
       S0VHI    2            
       S0VLO     .8          
      S1NAME 0               
       S1VHI     .8          
       S1VLO   -1.5          
      S2NAME R               
       S2VHI    1.2          
       S2VLO     .8          
      S3NAME R               
       S3VHI    2            
       S3VLO    1.1          
      S4NAME X               
       S4VHI    2            
       S4VLO     .8          
      S5NAME 1               
       S5VHI    7            
       S5VLO    2            
      S6NAME F               
       S6VHI    2            
       S6VLO    1.1          
      S7NAME F               
       S7VHI    1.2          
       S7VLO     .8          


**** 10/19/22 10:13:49 ****** PSpice 17.2.0 (March 2016) ****** ID# 0 ********

 ** Profile: "SCHEMATIC1-1"  [ D:\Or CAD\2022 pspice dinon\38Decorder-PSpiceFiles\SCHEMATIC1\1.sim ] 


 ****     Digital Gate MODEL PARAMETERS


******************************************************************************




               D_20            D0_GATE         
      TPLHMN    4.800000E-09    0            
      TPLHTY   12.000000E-09    0            
      TPLHMX   22.000000E-09    0            
      TPHLMN    3.200000E-09    0            
      TPHLTY    8.000000E-09    0            
      TPHLMX   15.000000E-09    0            


**** 10/19/22 10:13:49 ****** PSpice 17.2.0 (March 2016) ****** ID# 0 ********

 ** Profile: "SCHEMATIC1-1"  [ D:\Or CAD\2022 pspice dinon\38Decorder-PSpiceFiles\SCHEMATIC1\1.sim ] 


 ****     Digital IO  MODEL PARAMETERS


******************************************************************************




               IO_STM          IO_STD          IO_LS           
        DRVL    0             104             157            
        DRVH    0              96.4           108            
       AtoD1                 AtoD_STD        AtoD_LS         
       AtoD2                 AtoD_STD_NX     AtoD_LS_NX      
       AtoD3                 AtoD_STD        AtoD_LS         
       AtoD4                 AtoD_STD_NX     AtoD_LS_NX      
       DtoA1 DtoA_STM        DtoA_STD        DtoA_LS         
       DtoA2 DtoA_STM        DtoA_STD        DtoA_LS         
       DtoA3 DtoA_STM        DtoA_STD        DtoA_LS         
       DtoA4 DtoA_STM        DtoA_STD        DtoA_LS         
      TSWHL1                    1.511000E-09    2.724000E-09 
      TSWHL2                    1.487000E-09    2.724000E-09 
      TSWHL3                    1.511000E-09    2.724000E-09 
      TSWHL4                    1.487000E-09    2.724000E-09 
      TSWLH1                    3.517000E-09    2.104000E-09 
      TSWLH2                    3.564000E-09    2.104000E-09 
      TSWLH3                    3.517000E-09    2.104000E-09 
      TSWLH4                    3.564000E-09    2.104000E-09 
       TPWRT  100.000000E+03  100.000000E+03  100.000000E+03 


**** 10/19/22 10:13:49 ****** PSpice 17.2.0 (March 2016) ****** ID# 0 ********

 ** Profile: "SCHEMATIC1-1"  [ D:\Or CAD\2022 pspice dinon\38Decorder-PSpiceFiles\SCHEMATIC1\1.sim ] 


 ****     INITIAL TRANSIENT SOLUTION       TEMPERATURE =   27.000 DEG C


******************************************************************************



 NODE   VOLTAGE     NODE   VOLTAGE     NODE   VOLTAGE     NODE   VOLTAGE


($G_DGND)    0.0000                   ($G_DPWR)    5.0000                   



 DGTL NODE : STATE  DGTL NODE : STATE  DGTL NODE : STATE  DGTL NODE : STATE


( X_U3.Y4) : 1     ( X_U3.Y1) : 1     (M_UN0003) : 1     (       B) : 0         

( X_U3.Y2) : 1     (  X_U3.C) : 0     (  N00230) : X     ( X_U3.Y5) : 1         

( X_U3.Y6) : 1     (M_UN0004) : 1     (X_U3.ENABLE) : X  (       C) : 0         

( X_U3.Y3) : 1     (M_UN0001) : 1     (       Y) : X     (  N00237) : 1         

( X_U3.G1) : X     (  N00241) : 1     (  0$AtoD) : 0     (X_U3.G2ABAR) : 0      

(     +5V) : Z     ( X_U3.Y7) : 1     ( X_U3.Y0) : X     (M_UN0002) : 1         

(  X_U3.A) : 0     (       A) : 0     (  X_U3.B) : 0     (  N00245) : 1         

(X_U3.G2BBAR) : 0  ( 0$AtoD2) : 0     




    VOLTAGE SOURCE CURRENTS
    NAME         CURRENT

    X$DIGIFPWR.VDPWR  -5.000E-06
    X$DIGIFPWR.VDGND  -4.550E-04

    TOTAL POWER DISSIPATION   2.50E-05  WATTS



          JOB CONCLUDED

**** 10/19/22 10:13:49 ****** PSpice 17.2.0 (March 2016) ****** ID# 0 ********

 ** Profile: "SCHEMATIC1-1"  [ D:\Or CAD\2022 pspice dinon\38Decorder-PSpiceFiles\SCHEMATIC1\1.sim ] 


 ****     JOB STATISTICS SUMMARY


******************************************************************************



  Total job time (using Solver 1)   =         .05
